
 OpenBabel02272010173D

115118  0  0  0  0  0  0  0  0999 V2000
   -2.4309   -0.2029   -6.6540 C   0  0  0  0  0  0  0  0  0  0  0  0
   -1.8350    0.1693   -7.7167 O   0  0  0  0  0  0  0  0  0  0  0  0
   -4.4843   -0.1713   -6.9011 C   0  0  1  0  0  0  0  0  0  0  0  0
   -5.8678    0.9803   -7.7866 N   0  0  0  0  0  0  0  0  0  0  0  0
   -5.8476   -1.5331   -7.3753 C   0  0  0  0  0  0  0  0  0  0  0  0
   -0.9116   -0.5144   -5.5961 O   0  0  0  0  0  0  0  0  0  0  0  0
  -12.4613    5.1197  -10.2169 C   0  0  0  0  0  0  0  0  0  0  0  0
   -7.3696    1.7731   -8.3183 C   0  0  0  0  0  0  0  0  0  0  0  0
  -12.6027    5.3362  -11.4207 O   0  0  0  0  0  0  0  0  0  0  0  0
  -12.1786    3.5888   -9.6447 C   0  0  0  0  0  0  0  0  0  0  0  0
   -7.0725    2.3221   -9.3732 O   0  0  0  0  0  0  0  0  0  0  0  0
  -11.0616    3.0034   -8.3204 C   0  0  2  0  0  0  0  0  0  0  0  0
   -9.2877    2.3559   -7.8828 C   0  0  2  0  0  0  0  0  0  0  0  0
  -12.4557    6.1973   -9.4117 O   0  0  0  0  0  0  0  0  0  0  0  0
   -8.9444    3.5773   -7.1913 N   0  0  0  0  0  0  0  0  0  0  0  0
  -11.7734    4.1014   -7.2624 C   0  0  0  0  0  0  0  0  0  0  0  0
   -9.1174    4.8451   -7.6700 C   0  0  0  0  0  0  0  0  0  0  0  0
   -9.0663    5.3836   -9.2102 C   0  0  2  0  0  0  0  0  0  0  0  0
   -9.2816    5.6686   -6.7444 O   0  0  0  0  0  0  0  0  0  0  0  0
   -9.5977    6.7828   -9.1200 N   0  0  0  0  0  0  0  0  0  0  0  0
   -9.5626    4.6670  -10.4360 C   0  0  0  0  0  0  0  0  0  0  0  0
   -9.6041    5.4845  -11.6037 O   0  0  0  0  0  0  0  0  0  0  0  0
   -9.0916    7.8724   -8.4508 C   0  0  0  0  0  0  0  0  0  0  0  0
   -9.8341    8.8487   -8.2962 O   0  0  0  0  0  0  0  0  0  0  0  0
   -6.7971    6.8297   -8.1934 N   0  0  0  0  0  0  0  0  0  0  0  0
   -7.7086    7.8627   -7.7722 C   0  0  0  0  0  0  0  0  0  0  0  0
   -2.9993    7.1185   -9.7701 O   0  0  0  0  0  0  0  0  0  0  0  0
   -4.6846    5.8525   -5.5586 N   0  0  0  0  0  0  0  0  0  0  0  0
   -4.7621    8.3377   -9.0957 O   0  0  0  0  0  0  0  0  0  0  0  0
   -6.6300    5.0107   -7.0093 O   0  0  0  0  0  0  0  0  0  0  0  0
   -4.9282    6.7216   -6.6652 C   0  0  2  0  0  0  0  0  0  0  0  0
   -3.9130    7.4986   -8.8512 C   0  0  0  0  0  0  0  0  0  0  0  0
   -6.1802    6.1025   -7.2573 C   0  0  0  0  0  0  0  0  0  0  0  0
   -3.6922    6.8700   -7.5064 C   0  0  0  0  0  0  0  0  0  0  0  0
   -4.6698    4.5103   -5.5872 C   0  0  0  0  0  0  0  0  0  0  0  0
   -4.7607    4.0657   -4.4340 O   0  0  0  0  0  0  0  0  0  0  0  0
   -4.5422    3.5108   -6.8300 C   0  0  2  0  0  0  0  0  0  0  0  0
   -3.3140    2.8055   -6.6246 N   0  0  0  0  0  0  0  0  0  0  0  0
   -4.5516    3.8009   -8.3540 C   0  0  0  0  0  0  0  0  0  0  0  0
   -3.3917    3.3785   -0.8201 O   0  0  0  0  0  0  0  0  0  0  0  0
   -3.6429    0.2788   -4.0712 N   0  0  0  0  0  0  0  0  0  0  0  0
   -5.2696    2.3719   -1.6327 O   0  0  0  0  0  0  0  0  0  0  0  0
   -1.6189    2.5130   -5.5082 O   0  0  0  0  0  0  0  0  0  0  0  0
   -3.6746    1.7604   -4.2160 C   0  0  2  0  0  0  0  0  0  0  0  0
   -4.1228    2.7466   -1.7903 C   0  0  0  0  0  0  0  0  0  0  0  0
   -2.8417    2.3987   -5.4445 C   0  0  0  0  0  0  0  0  0  0  0  0
   -3.2139    2.4253   -2.9264 C   0  0  0  0  0  0  0  0  0  0  0  0
   -0.9050   -0.6000   -1.6394 C   0  0  0  0  0  0  0  0  0  0  0  0
   -2.7647   -0.6098   -3.5207 C   0  0  0  0  0  0  0  0  0  0  0  0
   -1.5296    0.1424   -0.4850 C   0  0  0  0  0  0  0  0  0  0  0  0
   -1.3589   -0.1753   -3.0289 C   0  0  1  0  0  0  0  0  0  0  0  0
   -0.9531    1.1007   -3.7285 N   0  0  0  0  0  0  0  0  0  0  0  0
   -1.4901   -0.6195    0.8452 C   0  0  0  0  0  0  0  0  0  0  0  0
   -2.5498   -0.1405    1.7250 N   0  0  0  0  0  0  0  0  0  0  0  0
   -3.1255   -1.7907   -3.5140 O   0  0  0  0  0  0  0  0  0  0  0  0
   -0.0857    2.1660   -3.6615 C   0  0  0  0  0  0  0  0  0  0  0  0
   -0.0969    2.9808   -2.7409 O   0  0  0  0  0  0  0  0  0  0  0  0
    1.0619    1.5709   -6.2568 N   0  0  0  0  0  0  0  0  0  0  0  0
    0.9221    2.3609   -4.9539 C   0  0  0  0  0  0  0  0  0  0  0  0
    2.8072    0.2761   -5.3492 C   0  0  2  0  0  0  0  0  0  0  0  0
    2.0658    0.6386   -6.5531 C   0  0  0  0  0  0  0  0  0  0  0  0
    1.9965   -0.1833   -7.4765 O   0  0  0  0  0  0  0  0  0  0  0  0
    0.9967   -0.5362   -4.9122 C   0  0  1  0  0  0  0  0  0  0  0  0
    3.9169    1.4110   -4.4322 N   0  0  0  0  0  0  0  0  0  0  0  0
    1.8192   -1.1298   -3.4768 C   0  0  0  0  0  0  0  0  0  0  0  0
    5.1255    4.7534   -2.5584 O   0  0  0  0  0  0  0  0  0  0  0  0
    8.0192    1.6332   -3.8860 N   0  0  0  0  0  0  0  0  0  0  0  0
    6.7250    6.3325   -2.7844 O   0  0  0  0  0  0  0  0  0  0  0  0
    5.0991    3.0687   -5.4338 O   0  0  0  0  0  0  0  0  0  0  0  0
    6.7241    2.4414   -3.5650 C   0  0  2  0  0  0  0  0  0  0  0  0
    6.3573    5.1377   -2.9343 C   0  0  0  0  0  0  0  0  0  0  0  0
    5.2347    2.1395   -4.6090 C   0  0  0  0  0  0  0  0  0  0  0  0
    7.2188    4.0399   -3.5040 C   0  0  0  0  0  0  0  0  0  0  0  0
   10.2639    1.1787   -6.8499 C   0  0  0  0  0  0  0  0  0  0  0  0
    8.9417    1.9532   -4.8712 C   0  0  0  0  0  0  0  0  0  0  0  0
   11.5262    0.5977   -7.4352 C   0  0  0  0  0  0  0  0  0  0  0  0
   10.1355    0.9840   -5.3174 C   0  0  1  0  0  0  0  0  0  0  0  0
    8.8912    3.0552   -5.4301 O   0  0  0  0  0  0  0  0  0  0  0  0
   12.4144    0.0700   -6.7769 O   0  0  0  0  0  0  0  0  0  0  0  0
   11.6052    0.6506   -8.7936 N   0  0  0  0  0  0  0  0  0  0  0  0
   10.3421   -0.4464   -4.9758 N   0  0  0  0  0  0  0  0  0  0  0  0
    9.3982   -1.3624   -4.6201 C   0  0  0  0  0  0  0  0  0  0  0  0
    8.2600   -0.9896   -4.3293 O   0  0  0  0  0  0  0  0  0  0  0  0
    9.8815   -2.8248   -4.3008 C   0  0  2  0  0  0  0  0  0  0  0  0
   10.4681   -2.7870   -2.8426 C   0  0  0  0  0  0  0  0  0  0  0  0
   10.5848   -3.6071   -5.3736 N   0  0  0  0  0  0  0  0  0  0  0  0
   10.2121   -4.8780   -5.7927 C   0  0  0  0  0  0  0  0  0  0  0  0
   10.9042   -5.4880   -7.0464 C   0  0  0  0  0  0  0  0  0  0  0  0
   -8.3976   -2.9637   -9.0774 C   0  0  0  0  0  0  0  0  0  0  0  0
   -7.6453   -3.9356   -9.7322 C   0  0  0  0  0  0  0  0  0  0  0  0
   -8.1420   -5.1254  -10.3922 C   0  0  0  0  0  0  0  0  0  0  0  0
   -9.4777   -5.3483  -10.6782 C   0  0  0  0  0  0  0  0  0  0  0  0
  -10.3260   -4.3194  -10.3189 C   0  0  0  0  0  0  0  0  0  0  0  0
   -9.8240   -3.1625   -9.5161 C   0  0  0  0  0  0  0  0  0  0  0  0
   -6.4160   -3.4414  -10.2644 N   0  0  0  0  0  0  0  0  0  0  0  0
   -7.5478   -1.6083   -8.2456 C   0  0  0  0  0  0  0  0  0  0  0  0
   -8.3052   -0.6853   -8.1691 O   0  0  0  0  0  0  0  0  0  0  0  0
   11.9501   -2.7878   -2.5390 C   0  0  0  0  0  0  0  0  0  0  0  0
   12.5110   -3.6428   -1.5960 C   0  0  0  0  0  0  0  0  0  0  0  0
   13.8581   -3.6853   -1.8117 N   0  0  0  0  0  0  0  0  0  0  0  0
   14.2093   -2.6933   -2.6875 C   0  0  0  0  0  0  0  0  0  0  0  0
   13.0503   -1.9759   -2.9870 C   0  0  0  0  0  0  0  0  0  0  0  0
   13.2354   -0.7587   -3.6707 C   0  0  0  0  0  0  0  0  0  0  0  0
   15.4502   -2.4015   -3.2577 C   0  0  0  0  0  0  0  0  0  0  0  0
   15.5180   -1.3783   -4.1929 C   0  0  0  0  0  0  0  0  0  0  0  0
   14.4508   -0.5078   -4.3273 C   0  0  0  0  0  0  0  0  0  0  0  0
    9.3806   -5.5513   -5.1785 O   0  0  0  0  0  0  0  0  0  0  0  0
   11.3044   -4.6364   -8.2626 C   0  0  0  0  0  0  0  0  0  0  0  0
   12.4049   -3.5638   -8.2918 C   0  0  0  0  0  0  0  0  0  0  0  0
   13.8799   -3.8442   -8.0232 C   0  0  0  0  0  0  0  0  0  0  0  0
   14.1982   -4.3511   -6.6344 C   0  0  0  0  0  0  0  0  0  0  0  0
   15.7115   -4.3582   -6.4263 C   0  0  0  0  0  0  0  0  0  0  0  0
   16.0481   -5.0568   -5.1198 C   0  0  0  0  0  0  0  0  0  0  0  0
   17.5174   -4.8622   -4.7684 C   0  0  0  0  0  0  0  0  0  0  0  0
   17.8270   -5.3998   -3.3828 C   0  0  0  0  0  0  0  0  0  0  0  0
  2  1  2  0  0  0  0
  3  1  1  0  0  0  0
  3  4  1  0  0  0  0
  3  5  1  6  0  0  0
  6  1  1  0  0  0  0
  8  4  1  0  0  0  0
  9  7  2  0  0  0  0
 10  7  1  0  0  0  0
 11  8  2  0  0  0  0
 12 10  1  0  0  0  0
 12 16  1  6  0  0  0
 13  8  1  0  0  0  0
 13 15  1  0  0  0  0
 13 12  1  6  0  0  0
 14  7  1  0  0  0  0
 17 15  1  0  0  0  0
 18 17  1  0  0  0  0
 18 20  1  0  0  0  0
 18 21  1  6  0  0  0
 19 17  2  0  0  0  0
 22 21  1  0  0  0  0
 23 20  1  0  0  0  0
 24 23  2  0  0  0  0
 26 23  1  0  0  0  0
 26 25  1  0  0  0  0
 31 28  1  0  0  0  0
 31 34  1  6  0  0  0
 32 27  1  0  0  0  0
 32 29  2  0  0  0  0
 33 25  1  0  0  0  0
 33 30  2  0  0  0  0
 33 31  1  0  0  0  0
 34 32  1  0  0  0  0
 35 28  1  0  0  0  0
 36 35  2  0  0  0  0
 37 35  1  0  0  0  0
 37 38  1  0  0  0  0
 37 39  1  6  0  0  0
 44 41  1  0  0  0  0
 44 47  1  1  0  0  0
 45 40  1  0  0  0  0
 45 42  2  0  0  0  0
 46 38  1  0  0  0  0
 46 43  2  0  0  0  0
 46 44  1  0  0  0  0
 47 45  1  0  0  0  0
 49 41  1  0  0  0  0
 50 48  1  0  0  0  0
 51 48  1  1  0  0  0
 51 49  1  0  0  0  0
 51 52  1  0  0  0  0
 53 50  1  0  0  0  0
 54 53  1  0  0  0  0
 55 49  2  0  0  0  0
 56 52  1  0  0  0  0
 57 56  2  0  0  0  0
 59 56  1  0  0  0  0
 59 58  1  0  0  0  0
 60 64  1  1  0  0  0
 61 58  1  0  0  0  0
 61 60  1  0  0  0  0
 62 61  2  0  0  0  0
 63  6  1  0  0  0  0
 63 60  1  0  0  0  0
 63 65  1  1  0  0  0
 70 67  1  0  0  0  0
 70 73  1  6  0  0  0
 71 66  1  0  0  0  0
 71 68  2  0  0  0  0
 72 64  1  0  0  0  0
 72 69  2  0  0  0  0
 72 70  1  0  0  0  0
 73 71  1  0  0  0  0
 75 67  1  0  0  0  0
 76 74  1  0  0  0  0
 77 81  1  0  0  0  0
 77 75  1  0  0  0  0
 77 74  1  6  0  0  0
 78 75  2  0  0  0  0
 79 76  2  0  0  0  0
 80 76  1  0  0  0  0
 82 81  1  0  0  0  0
 83 82  2  0  0  0  0
 84 86  1  0  0  0  0
 84 85  1  1  0  0  0
 84 82  1  0  0  0  0
 87 86  1  0  0  0  0
 87107  2  0  0  0  0
 88 87  1  0  0  0  0
 90 89  2  0  0  0  0
 91 90  1  0  0  0  0
 92 91  2  0  0  0  0
 93 92  1  0  0  0  0
 94 89  1  0  0  0  0
 94 93  2  0  0  0  0
 95 90  1  0  0  0  0
 96  5  1  0  0  0  0
 96 89  1  0  0  0  0
 97 96  2  0  0  0  0
 98 85  1  0  0  0  0
 99 98  2  0  0  0  0
100 99  1  0  0  0  0
101100  1  0  0  0  0
102 98  1  0  0  0  0
102101  2  0  0  0  0
103102  1  0  0  0  0
104101  1  0  0  0  0
105104  2  0  0  0  0
106103  2  0  0  0  0
106105  1  0  0  0  0
108 88  1  0  0  0  0
109108  1  0  0  0  0
110109  1  0  0  0  0
111110  1  0  0  0  0
112111  1  0  0  0  0
113112  1  0  0  0  0
114113  1  0  0  0  0
115114  1  0  0  0  0
M  END
>  <DATABASE_ID>
DB00080

>  <DATABASE_NAME>
drugbank

>  <SMILES>
CCCCCCCCCC(=O)N[C@@H](CC1=CNC2=C1C=CC=C2)C(=O)N[C@@H](CC(N)=O)C(=O)N[C@@H](CC(O)=O)C(=O)N[C@H]1[C@@H](C)OC(=O)[C@H](CC(=O)C2=C(N)C=CC=C2)NC(=O)[C@@H](NC(=O)[C@@H](CO)NC(=O)CNC(=O)[C@H](CC(O)=O)NC(=O)[C@@H](C)NC(=O)[C@H](CC(O)=O)NC(=O)[C@H](CCCN)NC(=O)CNC1=O)[C@H](C)CC(O)=O

>  <INCHI_IDENTIFIER>
InChI=1S/C72H101N17O26/c1-5-6-7-8-9-10-11-22-53(93)81-44(25-38-31-76-42-20-15-13-17-39(38)42)66(108)84-45(27-52(75)92)67(109)86-48(30-59(102)103)68(110)89-61-37(4)115-72(114)49(26-51(91)40-18-12-14-19-41(40)74)87-71(113)60(35(2)24-56(96)97)88-69(111)50(34-90)82-55(95)32-77-63(105)46(28-57(98)99)83-62(104)36(3)79-65(107)47(29-58(100)101)85-64(106)43(21-16-23-73)80-54(94)33-78-70(61)112/h12-15,17-20,31,35-37,43-50,60-61,76,90H,5-11,16,21-30,32-34,73-74H2,1-4H3,(H2,75,92)(H,77,105)(H,78,112)(H,79,107)(H,80,94)(H,81,93)(H,82,95)(H,83,104)(H,84,108)(H,85,106)(H,86,109)(H,87,113)(H,88,111)(H,89,110)(H,96,97)(H,98,99)(H,100,101)(H,102,103)/t35-,36-,37-,43+,44+,45+,46+,47+,48+,49+,50-,60+,61+/m1/s1

>  <INCHI_KEY>
DOAKLVKFURWEDJ-RWDRXURGSA-N

>  <FORMULA>
C72H101N17O26

>  <MOLECULAR_WEIGHT>
1620.693

>  <EXACT_MASS>
1619.71036644

>  <JCHEM_ACCEPTOR_COUNT>
27

>  <JCHEM_ATOM_COUNT>
216

>  <JCHEM_AVERAGE_POLARIZABILITY>
161.47964273425862

>  <JCHEM_BIOAVAILABILITY>
0

>  <JCHEM_DONOR_COUNT>
22

>  <JCHEM_FORMAL_CHARGE>
0

>  <JCHEM_GHOSE_FILTER>
0

>  <JCHEM_IUPAC>
(3S)-3-{[(3S,6S,9R,15S,18R,21S,24S,30S,31R)-3-[2-(2-aminophenyl)-2-oxoethyl]-24-(3-aminopropyl)-15,21-bis(carboxymethyl)-6-[(2R)-1-carboxypropan-2-yl]-9-(hydroxymethyl)-18,31-dimethyl-2,5,8,11,14,17,20,23,26,29-decaoxo-1-oxa-4,7,10,13,16,19,22,25,28-nonaazacyclohentriacontan-30-yl]carbamoyl}-3-[(2S)-3-carbamoyl-2-[(2S)-2-decanamido-3-(1H-indol-3-yl)propanamido]propanamido]propanoic acid

>  <ALOGPS_LOGP>
-0.47

>  <JCHEM_LOGP>
-9.365402671272518

>  <ALOGPS_LOGS>
-4.97

>  <JCHEM_MDDR_LIKE_RULE>
1

>  <JCHEM_NUMBER_OF_RINGS>
4

>  <JCHEM_PHYSIOLOGICAL_CHARGE>
-3

>  <JCHEM_PKA>
3.40977094699184

>  <JCHEM_PKA_STRONGEST_ACIDIC>
2.9766473286002766

>  <JCHEM_PKA_STRONGEST_BASIC>
9.593421979944157

>  <JCHEM_POLAR_SURFACE_AREA>
702.02

>  <JCHEM_REFRACTIVITY>
393.5654000000003

>  <JCHEM_ROTATABLE_BOND_COUNT>
35

>  <JCHEM_RULE_OF_FIVE>
0

>  <ALOGPS_SOLUBILITY>
1.73e-02 g/l

>  <JCHEM_TRADITIONAL_IUPAC>
(3S)-3-{[(3S,6S,9R,15S,18R,21S,24S,30S,31R)-3-[2-(2-aminophenyl)-2-oxoethyl]-24-(3-aminopropyl)-15,21-bis(carboxymethyl)-6-[(2R)-1-carboxypropan-2-yl]-9-(hydroxymethyl)-18,31-dimethyl-2,5,8,11,14,17,20,23,26,29-decaoxo-1-oxa-4,7,10,13,16,19,22,25,28-nonaazacyclohentriacontan-30-yl]carbamoyl}-3-[(2S)-3-carbamoyl-2-[(2S)-2-decanamido-3-(1H-indol-3-yl)propanamido]propanamido]propanoic acid

>  <JCHEM_VEBER_RULE>
0

>  <DRUGBANK_ID>
DB00080

>  <SECONDARY_ACCESSION_NUMBERS>
BTD00111; BIOD00111

>  <DRUG_GROUPS>
approved; investigational

>  <GENERIC_NAME>
Daptomycin

>  <PRODUCTS>
Cubicin; Cubicin RF; Daptomycin

$$$$
