
 OpenBabel02272010193D

117124  0  0  0  0  0  0  0  0999 V2000
  -18.5463  -17.2873    8.6012 N   0  0  0  0  0  0  0  0  0  0  0  0
  -20.9157  -12.1458   10.5940 N   0  0  0  0  0  0  0  0  0  0  0  0
  -17.4662  -16.7584    7.9416 C   0  0  0  0  0  0  0  0  0  0  0  0
  -20.3842  -10.9038   10.6946 C   0  0  0  0  0  0  0  0  0  0  0  0
  -17.5291  -19.3889    9.3477 C   0  0  0  0  0  0  0  0  0  0  0  0
  -19.0679  -10.7835   10.4237 N   0  0  0  0  0  0  0  0  0  0  0  0
  -20.1913  -13.2994   10.6732 C   0  0  0  0  0  0  0  0  0  0  0  0
  -14.3674  -10.6367   -0.3950 C   0  0  0  0  0  0  0  0  0  0  0  0
  -18.3032  -18.1118    9.7738 C   0  0  2  0  0  0  0  0  0  0  0  0
  -18.3590  -11.8829    9.8206 C   0  0  2  0  0  0  0  0  0  0  0  0
  -17.2734   -9.8610   -1.2371 C   0  0  0  0  0  0  0  0  0  0  0  0
  -19.5433  -15.7642    5.1533 C   0  0  0  0  0  0  0  0  0  0  0  0
  -18.0149  -16.6545    1.9231 C   0  0  0  0  0  0  0  0  0  0  0  0
  -19.9495  -11.7972   -2.6786 C   0  0  0  0  0  0  0  0  0  0  0  0
  -15.2814  -14.1579    0.8590 C   0  0  0  0  0  0  0  0  0  0  0  0
  -23.2792  -13.3508   -1.6209 C   0  0  0  0  0  0  0  0  0  0  0  0
  -18.5524  -11.7459    8.0036 C   0  0  0  0  0  0  0  0  0  0  0  0
  -16.2094   -9.9141   -2.0941 N   0  0  0  0  0  0  0  0  0  0  0  0
  -14.7976   -9.8502   -1.6489 C   0  0  1  0  0  0  0  0  0  0  0  0
  -14.8366  -11.9561   -0.3515 N   0  0  0  0  0  0  0  0  0  0  0  0
  -16.6140  -14.5445    1.0527 N   0  0  0  0  0  0  0  0  0  0  0  0
  -19.0986  -11.1496   -1.8010 N   0  0  0  0  0  0  0  0  0  0  0  0
  -18.4477  -15.9823    3.0346 N   0  0  0  0  0  0  0  0  0  0  0  0
  -22.1498  -12.9189   -2.3456 N   0  0  0  0  0  0  0  0  0  0  0  0
  -18.3678  -16.2389    5.6864 N   0  0  0  0  0  0  0  0  0  0  0  0
  -18.7300  -13.0721   10.8296 C   0  0  0  0  0  0  0  0  0  0  0  0
  -16.2535  -19.2156    8.8709 N   0  0  0  0  0  0  0  0  0  0  0  0
  -14.8418  -12.6537    0.9530 C   0  0  1  0  0  0  0  0  0  0  0  0
  -16.9664  -15.9993    0.9940 C   0  0  2  0  0  0  0  0  0  0  0  0
  -20.6145  -13.0211   -2.1129 C   0  0  2  0  0  0  0  0  0  0  0  0
  -18.6966   -9.7836   -1.8144 C   0  0  2  0  0  0  0  0  0  0  0  0
  -19.7323  -16.3166    3.7506 C   0  0  1  0  0  0  0  0  0  0  0  0
  -22.5718  -16.0858   -4.1980 C   0  0  0  0  0  0  0  0  0  0  0  0
  -17.6583  -15.7851    6.8371 C   0  0  1  0  0  0  0  0  0  0  0  0
  -24.6696  -13.5868   -2.4274 C   0  0  2  0  0  0  0  0  0  0  0  0
  -14.5442  -19.7524    7.1510 C   0  0  0  0  0  0  0  0  0  0  0  0
  -25.0599  -15.0686   -2.4364 N   0  0  0  0  0  0  0  0  0  0  0  0
  -17.5882  -12.2624    7.0889 N   0  0  0  0  0  0  0  0  0  0  0  0
  -25.7276  -15.7454   -1.4138 C   0  0  0  0  0  0  0  0  0  0  0  0
  -15.4555  -20.2682    8.2854 C   0  0  1  0  0  0  0  0  0  0  0  0
  -22.1044  -15.6860   -2.9361 N   0  0  0  0  0  0  0  0  0  0  0  0
  -16.3097  -16.8546    8.3730 O   0  0  0  0  0  0  0  0  0  0  0  0
  -21.0242   -9.9062   11.0781 O   0  0  0  0  0  0  0  0  0  0  0  0
  -18.0084  -20.5201    9.4376 O   0  0  0  0  0  0  0  0  0  0  0  0
  -24.7239  -12.8521   -3.8461 C   0  0  0  0  0  0  0  0  0  0  0  0
  -13.6007  -10.1639    0.4429 O   0  0  0  0  0  0  0  0  0  0  0  0
  -20.2279  -11.4669   -3.8288 O   0  0  0  0  0  0  0  0  0  0  0  0
  -17.1525  -10.1724   -0.0506 O   0  0  0  0  0  0  0  0  0  0  0  0
  -20.3470  -15.0250    5.7014 O   0  0  0  0  0  0  0  0  0  0  0  0
  -14.4504  -15.0105    0.5504 O   0  0  0  0  0  0  0  0  0  0  0  0
  -23.1665  -13.7569   -0.4698 O   0  0  0  0  0  0  0  0  0  0  0  0
  -18.4317  -17.7815    1.6558 O   0  0  0  0  0  0  0  0  0  0  0  0
  -19.4842  -11.0490    7.5554 O   0  0  0  0  0  0  0  0  0  0  0  0
  -28.2823  -12.7094   -4.8451 C   0  0  0  0  0  0  0  0  0  0  0  0
  -20.6886  -14.4215   10.6900 O   0  0  0  0  0  0  0  0  0  0  0  0
  -19.8624  -13.3392   -0.8067 C   0  0  0  0  0  0  0  0  0  0  0  0
  -17.2035  -16.5512   -0.4584 C   0  0  0  0  0  0  0  0  0  0  0  0
  -15.6840  -11.7849    1.8468 C   0  0  0  0  0  0  0  0  0  0  0  0
  -25.9364  -13.1699   -4.6878 C   0  0  0  0  0  0  0  0  0  0  0  0
  -18.9993   -9.2417   -3.1515 C   0  0  0  0  0  0  0  0  0  0  0  0
  -27.0763  -12.5312   -4.2331 C   0  0  0  0  0  0  0  0  0  0  0  0
  -22.4929  -17.2162   -4.6271 O   0  0  0  0  0  0  0  0  0  0  0  0
  -14.2102  -18.5810    6.9949 O   0  0  0  0  0  0  0  0  0  0  0  0
  -19.9768  -17.8197    3.8232 C   0  0  0  0  0  0  0  0  0  0  0  0
  -19.6366   -5.6220   -2.6645 N   0  0  0  0  0  0  0  0  0  0  0  0
  -26.1298  -15.1971   -0.3930 O   0  0  0  0  0  0  0  0  0  0  0  0
  -28.4289  -13.5720   -5.9606 C   0  0  0  0  0  0  0  0  0  0  0  0
  -17.1072  -12.2059    5.7368 C   0  0  0  0  0  0  0  0  0  0  0  0
  -23.2709  -15.2089   -4.7893 N   0  0  0  0  0  0  0  0  0  0  0  0
  -27.2759  -14.2297   -6.4388 C   0  0  0  0  0  0  0  0  0  0  0  0
  -14.0479  -20.7253    6.3259 N   0  0  0  0  0  0  0  0  0  0  0  0
  -19.9755  -17.0995    8.3493 C   0  0  0  0  0  0  0  0  0  0  0  0
  -21.0762  -16.2856   -2.3005 C   0  0  0  0  0  0  0  0  0  0  0  0
  -15.9883  -12.0378    3.2577 C   0  0  0  0  0  0  0  0  0  0  0  0
  -18.5922  -16.5417   -1.0761 C   0  0  0  0  0  0  0  0  0  0  0  0
  -20.3975  -12.8083    0.4784 C   0  0  0  0  0  0  0  0  0  0  0  0
  -26.0240  -13.9912   -5.8256 C   0  0  0  0  0  0  0  0  0  0  0  0
  -21.5559  -11.8988    2.8456 C   0  0  0  0  0  0  0  0  0  0  0  0
  -18.8683   -7.7891   -3.2937 C   0  0  0  0  0  0  0  0  0  0  0  0
  -16.4741  -10.3269    8.4147 N   0  0  0  0  0  0  0  0  0  0  0  0
  -22.3147  -11.3685    4.2868 Cl  0  0  0  0  0  0  0  0  0  0  0  0
  -14.2796   -8.4073   -1.6420 C   0  0  0  0  0  0  0  0  0  0  0  0
  -17.5305  -11.1899    4.9589 C   0  0  0  0  0  0  0  0  0  0  0  0
  -15.9714  -13.0583    5.3273 C   0  0  0  0  0  0  0  0  0  0  0  0
  -19.9518  -16.6004   -3.0650 C   0  0  0  0  0  0  0  0  0  0  0  0
  -21.0245  -16.1736   -0.9375 C   0  0  0  0  0  0  0  0  0  0  0  0
  -21.3038  -11.7525    0.4706 C   0  0  0  0  0  0  0  0  0  0  0  0
  -19.9932  -13.3228    1.7073 C   0  0  0  0  0  0  0  0  0  0  0  0
  -15.3772  -12.9454    4.0833 C   0  0  0  0  0  0  0  0  0  0  0  0
  -19.7736  -16.3325   -0.3345 C   0  0  0  0  0  0  0  0  0  0  0  0
  -16.9958  -11.1454    3.7098 C   0  0  0  0  0  0  0  0  0  0  0  0
  -18.7121  -16.7334   -2.4599 C   0  0  0  0  0  0  0  0  0  0  0  0
  -20.5630  -12.8656    2.8924 C   0  0  0  0  0  0  0  0  0  0  0  0
  -21.9270  -11.3400    1.6345 C   0  0  0  0  0  0  0  0  0  0  0  0
  -19.6925  -18.4180   10.3455 C   0  0  0  0  0  0  0  0  0  0  0  0
  -14.3904   -7.8920   -2.9786 O   0  0  0  0  0  0  0  0  0  0  0  0
  -19.4965   -6.9255   -2.3976 C   0  0  0  0  0  0  0  0  0  0  0  0
  -20.6995  -17.5743    9.5851 C   0  0  0  0  0  0  0  0  0  0  0  0
  -18.1535  -14.6084    7.5726 C   0  0  0  0  0  0  0  0  0  0  0  0
  -21.1014  -18.3923    4.6802 C   0  0  0  0  0  0  0  0  0  0  0  0
  -25.9266  -17.2568   -1.6280 C   0  0  0  0  0  0  0  0  0  0  0  0
  -19.1681   -5.2146   -3.8647 C   0  0  0  0  0  0  0  0  0  0  0  0
  -16.0693   -9.1244    9.1076 C   0  0  0  0  0  0  0  0  0  0  0  0
  -14.5826  -20.9019    9.3545 C   0  0  0  0  0  0  0  0  0  0  0  0
  -29.3539  -12.0054   -4.3226 C   0  0  0  0  0  0  0  0  0  0  0  0
  -15.5187  -11.4232    8.1419 C   0  0  0  0  0  0  0  0  0  0  0  0
  -29.6985  -13.7030   -6.5220 C   0  0  0  0  0  0  0  0  0  0  0  0
  -18.3556   -7.3455   -4.4859 C   0  0  0  0  0  0  0  0  0  0  0  0
  -17.0416  -14.1472    8.6899 C   0  0  0  0  0  0  0  0  0  0  0  0
  -15.7435  -12.9810    8.7825 C   0  0  0  0  0  0  0  0  0  0  0  0
  -22.4742  -17.8722    4.2746 C   0  0  0  0  0  0  0  0  0  0  0  0
  -20.9948  -19.9110    4.4998 C   0  0  0  0  0  0  0  0  0  0  0  0
  -14.7349   -8.6274    8.5792 C   0  0  0  0  0  0  0  0  0  0  0  0
  -17.1831   -8.0547    8.9850 C   0  0  0  0  0  0  0  0  0  0  0  0
  -18.5242   -6.0113   -4.7952 C   0  0  0  0  0  0  0  0  0  0  0  0
  -30.5992  -12.1344   -4.8951 C   0  0  0  0  0  0  0  0  0  0  0  0
  -30.7725  -12.9792   -5.9867 C   0  0  0  0  0  0  0  0  0  0  0  0
  2  7  1  0  0  0  0
  2  4  1  0  0  0  0
  3  1  1  0  0  0  0
  4  6  1  0  0  0  0
  6 10  1  0  0  0  0
  7 26  1  0  0  0  0
  8 20  1  0  0  0  0
  9  1  1  0  0  0  0
  9 95  1  0  0  0  0
  9  5  1  6  0  0  0
 10 17  1  6  0  0  0
 10 26  1  0  0  0  0
 11 18  1  0  0  0  0
 12 25  1  0  0  0  0
 13 23  1  0  0  0  0
 14 22  1  0  0  0  0
 15 21  1  0  0  0  0
 16 24  1  0  0  0  0
 17 38  1  0  0  0  0
 19 18  1  0  0  0  0
 19  8  1  0  0  0  0
 19 82  1  1  0  0  0
 27  5  1  0  0  0  0
 28 20  1  0  0  0  0
 28 15  1  0  0  0  0
 28 58  1  1  0  0  0
 29 57  1  6  0  0  0
 29 13  1  0  0  0  0
 29 21  1  0  0  0  0
 30 56  1  1  0  0  0
 30 14  1  0  0  0  0
 30 24  1  0  0  0  0
 31 60  1  6  0  0  0
 31 11  1  0  0  0  0
 31 22  1  0  0  0  0
 32 23  1  0  0  0  0
 32 12  1  0  0  0  0
 32 64  1  1  0  0  0
 33 41  1  0  0  0  0
 34 25  1  0  0  0  0
 34  3  1  0  0  0  0
 34 99  1  1  0  0  0
 35 45  1  6  0  0  0
 35 37  1  0  0  0  0
 35 16  1  0  0  0  0
 36 40  1  0  0  0  0
 38 68  1  0  0  0  0
 39 37  1  0  0  0  0
 40 27  1  0  0  0  0
 40104  1  1  0  0  0
 41 73  1  0  0  0  0
 42  3  2  0  0  0  0
 43  4  2  0  0  0  0
 44  5  2  0  0  0  0
 46  8  2  0  0  0  0
 47 14  2  0  0  0  0
 48 11  2  0  0  0  0
 49 12  2  0  0  0  0
 50 15  2  0  0  0  0
 51 16  2  0  0  0  0
 52 13  2  0  0  0  0
 53 17  2  0  0  0  0
 54 61  2  0  0  0  0
 55  7  2  0  0  0  0
 59 45  1  0  0  0  0
 61 59  1  0  0  0  0
 62 33  2  0  0  0  0
 63 36  2  0  0  0  0
 65 97  2  0  0  0  0
 66 39  2  0  0  0  0
 67 70  2  0  0  0  0
 67 54  1  0  0  0  0
 68 83  1  0  0  0  0
 68 84  2  0  0  0  0
 69 33  1  0  0  0  0
 70 77  1  0  0  0  0
 71 36  1  0  0  0  0
 72  1  1  0  0  0  0
 73 85  2  0  0  0  0
 73 86  1  0  0  0  0
 74 58  1  0  0  0  0
 75 57  1  0  0  0  0
 76 56  1  0  0  0  0
 77 59  2  0  0  0  0
 78 93  1  0  0  0  0
 78 94  2  0  0  0  0
 79 60  1  0  0  0  0
 80106  1  0  0  0  0
 81 78  1  0  0  0  0
 83 91  2  0  0  0  0
 84 89  1  0  0  0  0
 85 92  1  0  0  0  0
 86 90  2  0  0  0  0
 87 76  2  0  0  0  0
 88 76  1  0  0  0  0
 89 74  2  0  0  0  0
 90 75  1  0  0  0  0
 91 74  1  0  0  0  0
 92 75  2  0  0  0  0
 93 88  2  0  0  0  0
 94 87  1  0  0  0  0
 96 82  1  0  0  0  0
 97 79  1  0  0  0  0
 98 72  1  0  0  0  0
 98 95  1  0  0  0  0
100 64  1  0  0  0  0
101 39  1  0  0  0  0
102115  2  0  0  0  0
102 65  1  0  0  0  0
103 80  1  0  0  0  0
105 54  1  0  0  0  0
106110  1  0  0  0  0
107 67  1  0  0  0  0
108 79  2  0  0  0  0
109 99  1  0  0  0  0
110109  1  0  0  0  0
111100  1  0  0  0  0
112100  1  0  0  0  0
113103  1  0  0  0  0
114103  1  0  0  0  0
115108  1  0  0  0  0
116105  2  0  0  0  0
117107  2  0  0  0  0
117116  1  0  0  0  0
M  END
>  <DATABASE_ID>
DB06699

>  <DATABASE_NAME>
drugbank

>  <SMILES>
CC(C)C[C@H](NC(=O)[C@@H](CC1=CC=C(NC(N)=O)C=C1)NC(=O)[C@H](CC1=CC=C(NC(=O)[C@@H]2CC(=O)NC(=O)N2)C=C1)NC(=O)[C@H](CO)NC(=O)[C@@H](CC1=CC=CN=C1)NC(=O)[C@@H](CC1=CC=C(Cl)C=C1)NC(=O)[C@@H](CC1=CC=C2C=CC=CC2=C1)NC(C)=O)C(=O)N[C@@H](CCCCNC(C)C)C(=O)N1CCC[C@H]1C(=O)N[C@H](C)C(N)=O

>  <INCHI_IDENTIFIER>
InChI=1S/C82H103ClN18O16/c1-45(2)35-60(72(107)92-59(16-9-10-33-87-46(3)4)80(115)101-34-12-17-68(101)79(114)88-47(5)70(84)105)93-74(109)63(38-51-23-30-58(31-24-51)91-81(85)116)95-76(111)64(39-50-21-28-57(29-22-50)90-71(106)66-42-69(104)100-82(117)99-66)97-78(113)67(44-102)98-77(112)65(41-53-13-11-32-86-43-53)96-75(110)62(37-49-19-26-56(83)27-20-49)94-73(108)61(89-48(6)103)40-52-18-25-54-14-7-8-15-55(54)36-52/h7-8,11,13-15,18-32,36,43,45-47,59-68,87,102H,9-10,12,16-17,33-35,37-42,44H2,1-6H3,(H2,84,105)(H,88,114)(H,89,103)(H,90,106)(H,92,107)(H,93,109)(H,94,108)(H,95,111)(H,96,110)(H,97,113)(H,98,112)(H3,85,91,116)(H2,99,100,104,117)/t47-,59+,60+,61-,62-,63-,64+,65-,66+,67+,68+/m1/s1

>  <INCHI_KEY>
MEUCPCLKGZSHTA-XYAYPHGZSA-N

>  <FORMULA>
C82H103ClN18O16

>  <MOLECULAR_WEIGHT>
1632.29

>  <EXACT_MASS>
1630.748797

>  <JCHEM_ACCEPTOR_COUNT>
18

>  <JCHEM_ATOM_COUNT>
220

>  <JCHEM_AVERAGE_POLARIZABILITY>
168.9757050580019

>  <JCHEM_BIOAVAILABILITY>
0

>  <JCHEM_DONOR_COUNT>
17

>  <JCHEM_FORMAL_CHARGE>
0

>  <JCHEM_GHOSE_FILTER>
0

>  <JCHEM_IUPAC>
(4S)-N-{4-[(2S)-2-{[(1R)-2-[4-(carbamoylamino)phenyl]-1-{[(1S)-1-{[(2S)-1-[(2S)-2-{[(1R)-1-carbamoylethyl]carbamoyl}pyrrolidin-1-yl]-1-oxo-6-[(propan-2-yl)amino]hexan-2-yl]carbamoyl}-3-methylbutyl]carbamoyl}ethyl]carbamoyl}-2-[(2S)-2-[(2R)-2-[(2R)-3-(4-chlorophenyl)-2-[(2R)-2-acetamido-3-(naphthalen-2-yl)propanamido]propanamido]-3-(pyridin-3-yl)propanamido]-3-hydroxypropanamido]ethyl]phenyl}-2,6-dioxo-1,3-diazinane-4-carboxamide

>  <ALOGPS_LOGP>
2.66

>  <JCHEM_LOGP>
0.17705020735484508

>  <ALOGPS_LOGS>
-5.60

>  <JCHEM_MDDR_LIKE_RULE>
1

>  <JCHEM_NUMBER_OF_RINGS>
8

>  <JCHEM_PHYSIOLOGICAL_CHARGE>
1

>  <JCHEM_PKA>
11.599717410663526

>  <JCHEM_PKA_STRONGEST_ACIDIC>
10.54637956804157

>  <JCHEM_PKA_STRONGEST_BASIC>
11.160529415574686

>  <JCHEM_POLAR_SURFACE_AREA>
512.8699999999998

>  <JCHEM_REFRACTIVITY>
431.12800000000027

>  <JCHEM_ROTATABLE_BOND_COUNT>
41

>  <JCHEM_RULE_OF_FIVE>
0

>  <ALOGPS_SOLUBILITY>
4.10e-03 g/l

>  <JCHEM_TRADITIONAL_IUPAC>
(4S)-N-{4-[(2S)-2-{[(1R)-2-[4-(carbamoylamino)phenyl]-1-{[(1S)-1-{[(2S)-1-[(2S)-2-{[(1R)-1-carbamoylethyl]carbamoyl}pyrrolidin-1-yl]-6-(isopropylamino)-1-oxohexan-2-yl]carbamoyl}-3-methylbutyl]carbamoyl}ethyl]carbamoyl}-2-[(2S)-2-[(2R)-2-[(2R)-3-(4-chlorophenyl)-2-[(2R)-2-acetamido-3-(naphthalen-2-yl)propanamido]propanamido]-3-(pyridin-3-yl)propanamido]-3-hydroxypropanamido]ethyl]phenyl}-2,6-dioxo-1,3-diazinane-4-carboxamide

>  <JCHEM_VEBER_RULE>
0

>  <DRUGBANK_ID>
DB06699

>  <DRUG_GROUPS>
approved

>  <GENERIC_NAME>
Degarelix

>  <PRODUCTS>
Firmagon

>  <SALTS>
Degarelix acetate hydrate

$$$$
