
 OpenBabel02272010203D

115120  0  0  0  0  0  0  0  0999 V2000
    0.0419    9.1408   -7.3606 O   0  0  0  0  0  0  0  0  0  0  0  0
    0.9823    5.8121   -4.2011 N   0  0  0  0  0  0  0  0  0  0  0  0
    0.2178   12.0005   -7.2327 N   0  0  0  0  0  0  0  0  0  0  0  0
    1.3535    7.5377   -5.4896 C   0  0  2  0  0  0  0  0  0  0  0  0
    3.2016    3.8170   -3.7020 C   0  0  0  0  0  0  0  0  0  0  0  0
    0.7032    9.7813   -6.4748 C   0  0  0  0  0  0  0  0  0  0  0  0
    2.3468    5.4580   -4.9222 C   0  0  1  0  0  0  0  0  0  0  0  0
    0.7755    3.0621   -2.8671 O   0  0  0  0  0  0  0  0  0  0  0  0
    1.7978    5.4121   -1.6256 N   0  0  0  0  0  0  0  0  0  0  0  0
    0.8179    4.5043   -1.2976 C   0  0  2  0  0  0  0  0  0  0  0  0
    0.7279    4.3964   -2.9487 C   0  0  0  0  0  0  0  0  0  0  0  0
   -0.7045    4.2871   -1.3271 C   0  0  0  0  0  0  0  0  0  0  0  0
    3.7179    4.3895   -0.9130 O   0  0  0  0  0  0  0  0  0  0  0  0
    4.0375    5.8291   -2.9810 C   0  0  2  0  0  0  0  0  0  0  0  0
    6.4449    5.8689   -4.0758 C   0  0  0  0  0  0  0  0  0  0  0  0
    3.1978    5.1959   -1.6836 C   0  0  0  0  0  0  0  0  0  0  0  0
    5.5014    5.3717   -2.9832 C   0  0  1  0  0  0  0  0  0  0  0  0
    3.5517    7.1579   -3.0426 N   0  0  0  0  0  0  0  0  0  0  0  0
    1.3789    7.1371   -2.5977 O   0  0  0  0  0  0  0  0  0  0  0  0
    2.6865    9.3848   -4.6220 N   0  0  0  0  0  0  0  0  0  0  0  0
    1.8160    8.9818   -3.5790 C   0  0  2  0  0  0  0  0  0  0  0  0
   -0.6294    8.2815   -2.7118 C   0  0  0  0  0  0  0  0  0  0  0  0
    2.3206    7.6788   -3.1005 C   0  0  0  0  0  0  0  0  0  0  0  0
    0.0374    8.7458   -3.9663 C   0  0  0  0  0  0  0  0  0  0  0  0
    4.6993    8.9651   -3.6286 O   0  0  0  0  0  0  0  0  0  0  0  0
    4.7094   10.1577   -5.7084 C   0  0  2  0  0  0  0  0  0  0  0  0
    4.0450    9.4655   -4.5338 C   0  0  0  0  0  0  0  0  0  0  0  0
    6.2222    9.9956   -5.4860 C   0  0  0  0  0  0  0  0  0  0  0  0
    4.3223   11.5714   -5.7215 N   0  0  0  0  0  0  0  0  0  0  0  0
    2.2621   11.2541   -6.1451 O   0  0  0  0  0  0  0  0  0  0  0  0
    3.5638   14.3662   -6.3052 N   0  0  0  0  0  0  0  0  0  0  0  0
    2.7680   13.5111   -5.4538 C   0  0  2  0  0  0  0  0  0  0  0  0
    0.6149   15.0661   -5.4179 C   0  0  0  0  0  0  0  0  0  0  0  0
    3.0930   12.0730   -5.8310 C   0  0  0  0  0  0  0  0  0  0  0  0
    1.2860   13.7766   -5.7405 C   0  0  0  0  0  0  0  0  0  0  0  0
    1.3081   16.1385   -4.9125 C   0  0  0  0  0  0  0  0  0  0  0  0
   -0.7469   15.2151   -5.7231 C   0  0  0  0  0  0  0  0  0  0  0  0
   -1.3150   16.4670   -5.7052 C   0  0  0  0  0  0  0  0  0  0  0  0
   -0.7157   17.4198   -4.9212 C   0  0  0  0  0  0  0  0  0  0  0  0
    0.5927   17.2482   -4.5079 C   0  0  0  0  0  0  0  0  0  0  0  0
    5.5708   13.6907   -5.6689 O   0  0  0  0  0  0  0  0  0  0  0  0
    5.2415   16.2071   -7.9016 N   0  0  0  0  0  0  0  0  0  0  0  0
    5.6361   14.9025   -7.7488 C   0  0  2  0  0  0  0  0  0  0  0  0
    4.9229   14.3400   -6.4813 C   0  0  0  0  0  0  0  0  0  0  0  0
    4.0794   16.5452   -8.3462 C   0  0  0  0  0  0  0  0  0  0  0  0
    2.8946   15.5530   -8.7356 C   0  0  1  0  0  0  0  0  0  0  0  0
    2.2410   15.9025   -9.8989 N   0  0  0  0  0  0  0  0  0  0  0  0
    3.1222   14.0905   -8.9808 C   0  0  0  0  0  0  0  0  0  0  0  0
    4.0565   17.7508   -8.1345 O   0  0  0  0  0  0  0  0  0  0  0  0
    1.9220   18.3024   -8.9576 C   0  0  2  0  0  0  0  0  0  0  0  0
    1.8926   17.1352  -10.2180 C   0  0  0  0  0  0  0  0  0  0  0  0
    2.4810   19.5189   -9.5722 C   0  0  0  0  0  0  0  0  0  0  0  0
    1.9460   17.9688   -7.5125 N   0  0  0  0  0  0  0  0  0  0  0  0
    3.6907   19.0994  -10.2932 C   0  0  0  0  0  0  0  0  0  0  0  0
    1.5629   17.1963  -11.4022 O   0  0  0  0  0  0  0  0  0  0  0  0
    2.2717   18.8325   -6.5357 C   0  0  0  0  0  0  0  0  0  0  0  0
    1.5876   20.1617   -6.4606 C   0  0  1  0  0  0  0  0  0  0  0  0
    2.6454   21.1086   -6.2327 N   0  0  0  0  0  0  0  0  0  0  0  0
    1.7369   21.7076   -4.2326 O   0  0  0  0  0  0  0  0  0  0  0  0
    3.7437   22.8474   -4.9142 C   0  0  0  0  0  0  0  0  0  0  0  0
    2.6129   21.8528   -5.0849 C   0  0  0  0  0  0  0  0  0  0  0  0
    4.8701   22.2687   -4.2091 N   0  0  0  0  0  0  0  0  0  0  0  0
    5.9142   21.5925   -6.1200 O   0  0  0  0  0  0  0  0  0  0  0  0
    7.2358   21.8600   -2.7866 N   0  0  0  0  0  0  0  0  0  0  0  0
    7.0672   21.0967   -4.0423 C   0  0  2  0  0  0  0  0  0  0  0  0
    5.9115   21.6790   -4.8920 C   0  0  0  0  0  0  0  0  0  0  0  0
    6.8075   19.6366   -3.7093 C   0  0  0  0  0  0  0  0  0  0  0  0
    4.4707   20.3018  -10.6333 C   0  0  0  0  0  0  0  0  0  0  0  0
    5.8466   19.8618  -11.0757 C   0  0  0  0  0  0  0  0  0  0  0  0
    6.4779   21.0145  -11.6821 N   0  0  0  0  0  0  0  0  0  0  0  0
    4.0590   13.8076  -10.0875 C   0  0  0  0  0  0  0  0  0  0  0  0
    4.4634   12.5169   -9.9729 N   0  0  0  0  0  0  0  0  0  0  0  0
    4.4718   14.6098  -10.9021 O   0  0  0  0  0  0  0  0  0  0  0  0
    7.1137   14.8231   -7.6722 C   0  0  0  0  0  0  0  0  0  0  0  0
    7.8446   15.5784   -8.7649 C   0  0  0  0  0  0  0  0  0  0  0  0
    9.0345   16.1636   -8.3572 C   0  0  0  0  0  0  0  0  0  0  0  0
    7.4237   15.7961  -10.0891 C   0  0  0  0  0  0  0  0  0  0  0  0
    9.6357   17.1454   -9.1269 C   0  0  0  0  0  0  0  0  0  0  0  0
    8.1623   16.6178  -10.9433 C   0  0  0  0  0  0  0  0  0  0  0  0
    9.1998   17.3774  -10.4230 C   0  0  0  0  0  0  0  0  0  0  0  0
    6.6756   10.5899   -4.1705 C   0  0  0  0  0  0  0  0  0  0  0  0
    7.7079   10.1759   -3.2850 C   0  0  0  0  0  0  0  0  0  0  0  0
    6.0420   11.6228   -3.5091 C   0  0  0  0  0  0  0  0  0  0  0  0
    7.7364   11.0803   -2.2228 C   0  0  0  0  0  0  0  0  0  0  0  0
    6.7410   11.9782   -2.4178 N   0  0  0  0  0  0  0  0  0  0  0  0
    8.6377   11.0480   -1.1733 C   0  0  0  0  0  0  0  0  0  0  0  0
    9.5596   10.0175   -1.1991 C   0  0  0  0  0  0  0  0  0  0  0  0
    9.5567    9.0746   -2.2290 C   0  0  0  0  0  0  0  0  0  0  0  0
    8.6334    9.1311   -3.2778 C   0  0  0  0  0  0  0  0  0  0  0  0
   -0.1815    9.2540   -1.6921 C   0  0  0  0  0  0  0  0  0  0  0  0
   -0.8685   10.5249   -2.0045 C   0  0  0  0  0  0  0  0  0  0  0  0
   -0.3622   11.4807   -1.0639 N   0  0  0  0  0  0  0  0  0  0  0  0
    6.0068    5.7490   -1.7441 O   0  0  0  0  0  0  0  0  0  0  0  0
   -1.2820    5.4902   -0.7490 C   0  0  0  0  0  0  0  0  0  0  0  0
   -2.3942    6.0480   -1.3586 C   0  0  0  0  0  0  0  0  0  0  0  0
   -0.6175    6.1086    0.3104 C   0  0  0  0  0  0  0  0  0  0  0  0
   -2.7441    7.3325   -0.9922 C   0  0  0  0  0  0  0  0  0  0  0  0
   -1.0593    7.3201    0.7572 C   0  0  0  0  0  0  0  0  0  0  0  0
   -2.0841    7.9596    0.0649 C   0  0  0  0  0  0  0  0  0  0  0  0
    1.7161    3.6557   -4.6503 O   0  0  0  0  0  0  0  0  0  0  0  0
    0.0931   22.6226  -12.0939 O   0  0  0  0  0  0  0  0  0  0  0  0
   -1.3122   18.5346   -9.3858 N   0  0  0  0  0  0  0  0  0  0  0  0
   -2.0021   23.5587  -12.0254 O   0  0  0  0  0  0  0  0  0  0  0  0
   -1.2946   20.6642  -10.1508 C   0  0  2  0  0  0  0  0  0  0  0  0
   -0.9786   22.2048  -11.5814 C   0  0  0  0  0  0  0  0  0  0  0  0
   -0.3497   14.1919   -8.1826 C   0  0  2  0  0  0  0  0  0  0  0  0
   -1.1725   16.4579   -8.7245 C   0  0  0  0  0  0  0  0  0  0  0  0
    0.0957   16.1960   -8.8747 C   0  0  0  0  0  0  0  0  0  0  0  0
   -0.4123   17.0922  -10.5228 O   0  0  0  0  0  0  0  0  0  0  0  0
    3.0930   18.4297   -5.7080 O   0  0  0  0  0  0  0  0  0  0  0  0
   -2.3817   16.4974   -9.2297 O   0  0  0  0  0  0  0  0  0  0  0  0
    0.6753   20.5774   -7.5574 C   0  0  0  0  0  0  0  0  0  0  0  0
   -1.4137   22.6347   -9.5636 C   0  0  0  0  0  0  0  0  0  0  0  0
   -1.4841   21.9157   -8.0539 S   0  0  0  0  0  0  0  0  0  0  0  0
    0.3406   22.3084   -7.4534 S   0  0  0  0  0  0  0  0  0  0  0  0
  1  6  2  0  0  0  0
  4  2  1  0  0  0  0
  4  7  1  6  0  0  0
  6  3  1  0  0  0  0
  6  4  1  0  0  0  0
  7  5  1  1  0  0  0
  7100  1  0  0  0  0
  8 11  2  0  0  0  0
 10  9  1  0  0  0  0
 10 12  1  6  0  0  0
 11  2  1  0  0  0  0
 11 10  1  0  0  0  0
 12 94  1  0  0  0  0
 13 16  2  0  0  0  0
 14 18  1  0  0  0  0
 14 17  1  1  0  0  0
 16  9  1  0  0  0  0
 16 14  1  0  0  0  0
 17 15  1  6  0  0  0
 17 93  1  0  0  0  0
 19 23  2  0  0  0  0
 21 20  1  0  0  0  0
 21 24  1  6  0  0  0
 22 90  1  0  0  0  0
 23 18  1  0  0  0  0
 23 21  1  0  0  0  0
 24 22  1  0  0  0  0
 25 27  2  0  0  0  0
 26 29  1  0  0  0  0
 26 28  1  1  0  0  0
 27 20  1  0  0  0  0
 27 26  1  0  0  0  0
 28 81  1  0  0  0  0
 30 34  2  0  0  0  0
 32 31  1  0  0  0  0
 32 35  1  6  0  0  0
 33 37  1  0  0  0  0
 34 29  1  0  0  0  0
 34 32  1  0  0  0  0
 35 33  1  0  0  0  0
 36 33  2  0  0  0  0
 36 40  1  0  0  0  0
 37 38  2  0  0  0  0
 38 39  1  0  0  0  0
 39 40  2  0  0  0  0
 41 44  2  0  0  0  0
 43 42  1  0  0  0  0
 43 74  1  1  0  0  0
 44 31  1  0  0  0  0
 44 43  1  0  0  0  0
 45 46  1  0  0  0  0
 45 42  1  0  0  0  0
 46 47  1  0  0  0  0
 46 48  1  6  0  0  0
 48 71  1  0  0  0  0
 49 45  2  0  0  0  0
 50 51  1  0  0  0  0
 50 53  1  0  0  0  0
 50 52  1  6  0  0  0
 51 47  1  0  0  0  0
 52 54  1  0  0  0  0
 53 56  1  0  0  0  0
 54 68  1  0  0  0  0
 55 51  2  0  0  0  0
 56 57  1  0  0  0  0
 56110  2  0  0  0  0
 57 58  1  6  0  0  0
 57112  1  0  0  0  0
 59 61  2  0  0  0  0
 60 62  1  0  0  0  0
 61 58  1  0  0  0  0
 61 60  1  0  0  0  0
 63 66  2  0  0  0  0
 65 64  1  0  0  0  0
 65 67  1  1  0  0  0
 66 62  1  0  0  0  0
 66 65  1  0  0  0  0
 68 69  1  0  0  0  0
 69 70  1  0  0  0  0
 72 71  1  0  0  0  0
 73 71  2  0  0  0  0
 74 75  1  0  0  0  0
 76 75  2  0  0  0  0
 77 75  1  0  0  0  0
 78 76  1  0  0  0  0
 79 77  2  0  0  0  0
 80 78  2  0  0  0  0
 80 79  1  0  0  0  0
 82 81  1  0  0  0  0
 82 84  2  0  0  0  0
 83 81  2  0  0  0  0
 84 86  1  0  0  0  0
 85 83  1  0  0  0  0
 85 84  1  0  0  0  0
 87 86  2  0  0  0  0
 88 87  1  0  0  0  0
 89 82  1  0  0  0  0
 89 88  2  0  0  0  0
 90 91  1  0  0  0  0
 91 92  1  0  0  0  0
 95 94  2  0  0  0  0
 96 94  1  0  0  0  0
 97 95  1  0  0  0  0
 98 96  2  0  0  0  0
 99 97  2  0  0  0  0
 99 98  1  0  0  0  0
101105  2  0  0  0  0
102107  1  0  0  0  0
104102  1  0  0  0  0
104113  1  0  0  0  0
104105  1  1  0  0  0
105103  1  0  0  0  0
106  3  1  0  0  0  0
106108  1  6  0  0  0
107106  1  0  0  0  0
107111  2  0  0  0  0
108109  1  0  0  0  0
112115  1  0  0  0  0
113114  1  0  0  0  0
114115  1  0  0  0  0
M  END
>  <DATABASE_ID>
DB09099

>  <DATABASE_NAME>
drugbank

>  <SMILES>
C[C@@H](O)[C@@H]1NC(=O)[C@H](CC2=CC=CC=C2)NC(=O)[C@@H](NC(=O)[C@H](CCCCN)NC(=O)[C@H](CC2=CNC3=C2C=CC=C3)NC(=O)[C@H](CC2=CC=CC=C2)NC(=O)[C@H](CC2=CC=CC=C2)NC(=O)[C@H](CC(N)=O)NC(=O)[C@H](CCCCN)NC(=O)[C@H](CSSC[C@H](NC(=O)[C@H](CO)NC1=O)C(O)=O)NC(=O)CNC(=O)[C@H](C)N)[C@@H](C)O

>  <INCHI_IDENTIFIER>
InChI=1S/C76H104N18O19S2/c1-41(79)64(100)82-37-61(99)83-58-39-114-115-40-59(76(112)113)92-72(108)57(38-95)91-75(111)63(43(3)97)94-71(107)54(33-46-23-11-6-12-24-46)90-74(110)62(42(2)96)93-66(102)51(28-16-18-30-78)84-69(105)55(34-47-36-81-49-26-14-13-25-48(47)49)88-68(104)53(32-45-21-9-5-10-22-45)86-67(103)52(31-44-19-7-4-8-20-44)87-70(106)56(35-60(80)98)89-65(101)50(85-73(58)109)27-15-17-29-77/h4-14,19-26,36,41-43,50-59,62-63,81,95-97H,15-18,27-35,37-40,77-79H2,1-3H3,(H2,80,98)(H,82,100)(H,83,99)(H,84,105)(H,85,109)(H,86,103)(H,87,106)(H,88,104)(H,89,101)(H,90,110)(H,91,111)(H,92,108)(H,93,102)(H,94,107)(H,112,113)/t41-,42+,43+,50-,51-,52-,53-,54-,55-,56-,57-,58-,59-,62-,63-/m0/s1

>  <INCHI_KEY>
NHXLMOGPVYXJNR-ATOGVRKGSA-N

>  <FORMULA>
C76H104N18O19S2

>  <MOLECULAR_WEIGHT>
1637.9

>  <EXACT_MASS>
1636.716655549

>  <JCHEM_ACCEPTOR_COUNT>
22

>  <JCHEM_ATOM_COUNT>
219

>  <JCHEM_AVERAGE_POLARIZABILITY>
165.80215359153084

>  <JCHEM_BIOAVAILABILITY>
0

>  <JCHEM_DONOR_COUNT>
22

>  <JCHEM_FORMAL_CHARGE>
0

>  <JCHEM_GHOSE_FILTER>
0

>  <JCHEM_IUPAC>
(4R,7S,10S,13S,16S,19S,22S,25S,28S,31S,34S,37R)-19,34-bis(4-aminobutyl)-37-{2-[(2S)-2-aminopropanamido]acetamido}-13,25,28-tribenzyl-31-(carbamoylmethyl)-10,16-bis[(1R)-1-hydroxyethyl]-7-(hydroxymethyl)-22-[(1H-indol-3-yl)methyl]-6,9,12,15,18,21,24,27,30,33,36-undecaoxo-1,2-dithia-5,8,11,14,17,20,23,26,29,32,35-undecaazacyclooctatriacontane-4-carboxylic acid

>  <ALOGPS_LOGP>
-1.84

>  <JCHEM_LOGP>
-8.234491845035745

>  <ALOGPS_LOGS>
-4.90

>  <JCHEM_MDDR_LIKE_RULE>
1

>  <JCHEM_NUMBER_OF_RINGS>
6

>  <JCHEM_PHYSIOLOGICAL_CHARGE>
2

>  <JCHEM_PKA>
11.410658761589486

>  <JCHEM_PKA_STRONGEST_ACIDIC>
2.8840422878822505

>  <JCHEM_PKA_STRONGEST_BASIC>
10.465604797102054

>  <JCHEM_POLAR_SURFACE_AREA>
613.23

>  <JCHEM_REFRACTIVITY>
420.2600000000003

>  <JCHEM_ROTATABLE_BOND_COUNT>
26

>  <JCHEM_RULE_OF_FIVE>
0

>  <ALOGPS_SOLUBILITY>
2.05e-02 g/l

>  <JCHEM_TRADITIONAL_IUPAC>
(4R,7S,10S,13S,16S,19S,22S,25S,28S,31S,34S,37R)-19,34-bis(4-aminobutyl)-37-{2-[(2S)-2-aminopropanamido]acetamido}-13,25,28-tribenzyl-31-(carbamoylmethyl)-10,16-bis[(1R)-1-hydroxyethyl]-7-(hydroxymethyl)-22-(1H-indol-3-ylmethyl)-6,9,12,15,18,21,24,27,30,33,36-undecaoxo-1,2-dithia-5,8,11,14,17,20,23,26,29,32,35-undecaazacyclooctatriacontane-4-carboxylic acid

>  <JCHEM_VEBER_RULE>
0

>  <DRUGBANK_ID>
DB09099

>  <DRUG_GROUPS>
approved; investigational

>  <GENERIC_NAME>
Somatostatin

>  <SYNONYMS>
Somatostatina; Somatostatine; Somatostatinum; Synthetic growth hormone release-inhibiting hormone; Synthetic somatostatin-14

>  <PRODUCTS>
Stilamin - Pws IV  3mg/amp; Stilamin - Pws Liq IV

>  <SALTS>
Somatostatin acetate

$$$$
